
#======================================================================
# CRYSTAL DATA
#----------------------------------------------------------------------
data_VESTA_phase_1

_chemical_name_common                  'Fe4 S8'
_cell_length_a                         5.396824
_cell_length_b                         5.396824
_cell_length_c                         5.396824
_cell_angle_alpha                      90.000000
_cell_angle_beta                       90.000000
_cell_angle_gamma                      90.000000
_cell_volume                           157.186317
_space_group_name_H-M_alt              'P 21/c'
_space_group_IT_number                 14

loop_
_space_group_symop_operation_xyz
   'x, y, z'
   '-x, -y, -z'
   '-x, y+1/2, -z+1/2'
   'x, -y+1/2, z+1/2'

loop_
   _atom_site_label
   _atom_site_occupancy
   _atom_site_fract_x
   _atom_site_fract_y
   _atom_site_fract_z
   _atom_site_adp_type
   _atom_site_U_iso_or_equiv
   _atom_site_type_symbol
   Fe0        1.0     0.000000     0.500000     0.500000    Uiso  ? Fe
   Cu1        1.0     0.500000     0.500000     0.000000    Uiso  ? Cu
   S4         1.0     0.385380     0.114620     0.885380    Uiso  ? S
   S5         1.0     0.114620     0.885380     0.385380    Uiso  ? S
