LAMMPS (2 Aug 2023)
units           metal
atom_style      charge
boundary        p p f

read_data       data_va0.lammps
Reading data file ...
  triclinic box = (0 0 0) to (2.868779 4.634475 15.832507) with tilt (0 0 0)
  reading atoms ...
  8 atoms

replicate 4 4 1
Replication is creating a 4x4x1 = 16 times larger system...
  triclinic box = (0 0 0) to (11.475116 18.5379 15.832507) with tilt (0 0 0)
  128 atoms
  replicate CPU = 0.000 seconds

variable Tini equal 300.0 # [K]
variable Tfin equal 600.0 # [K]

#set type 1 charge +1
#set type 2 charge +3
#set type 3 charge -2

#pair_style    chgnet /mnt/d/lammps/src/ML-CHGNET
#pair_style    chgnet/d3 /mnt/d/lammps/src/ML-CHGNET
pair_style    chgnet/gpu /mnt/d/lammps/src/ML-CHGNET
#pair_style    chgnet/d3/gpu /mnt/d/lammps/src/ML-CHGNET

variable elem string "Li Mn O"

pair_coeff    * *  0.3.0 Li Mn O

timestep 0.0001 # 0.1 [fs] (Recommend 0.1-0.5 [fs])

thermo 100
thermo_style custom step time cpu cpuremain lx ly lz press pe temp

velocity all create 300 12345 mom yes rot no

# Equilibrium system, calculation settings

# non-equilibrium system, calculation settings
fix f1 all nve
fix f2 all langevin 300 600 $(100*dt) 1234567
fix f2 all langevin 300 600 0.010000000000000000208 1234567

# E-field component values (electric field units) (electric field = volts/Angstrom)
variable va equal 2.0/lz
fix kick all efield 0.0 0.0 v_va
#fix f0 all wall/reflect zhi EDGE # For boundary p p f
fix f0 all wall/reflect zlo EDGE zhi EDGE # For boundary p p f

dump            d1 all cfg 100 cfg/run.*.cfg mass type xs ys zs id type vx vy vz fx fy fz q
dump_modify     d1 element Li Mn O
dump_modify     d1 sort id

run             10000
Step          Time           CPU          CPULeft           Lx             Ly             Lz           Press          PotEng          Temp
0   0              0              0              11.475116      18.5379        15.832507     -41011.162     -861.88721      300
Averages over the last 51 of 101 rows, steps 5000 to 10000:
Lx Ly Lz Press PotEng Temp
11.4751 18.5379 15.8325 13636.3 -889.951 523.11
Loop time of 696.251 on 1 procs for 10000 steps with 128 atoms
